data/projects/lehigh2mgs/hosting_capacity/volts.csv
Bus, BasekV, Node1, Magnitude1, Angle1, pu1, Node2, Magnitude2, Angle2, pu2, Node3, Magnitude3, Angle3, pu3
"SOURCEBUS", 115, 1,    66395.3,   30.0,         1, 2,    66395.3,  -90.0,         1, 3,    66395.3,  150.0,         1
"680", 4.16, 1,    2401.78,    0.0,         1, 2,    2401.77, -120.0,         1, 3,    2401.75,  120.0,   0.99999
"650", 4.16, 1,    2401.74,    0.0,   0.99998, 2,    2401.74, -120.0,   0.99999, 3,    2401.73,  120.0,   0.99998
"RG60", 4.16, 1,    2446.67,    0.0,    1.0187, 2,    2446.66, -120.0,    1.0187, 3,    2461.63,  120.0,    1.0249
"633", 4.16, 1,     2322.1,   -0.3,   0.96683, 2,    2326.21, -121.4,   0.96854, 3,    2315.39,  118.9,   0.96403
"634", 0.48, 1,    254.689,   -0.5,   0.91903, 2,    268.409, -121.4,   0.96854, 3,     267.16,  118.9,   0.96403
"684", 4.16, 2,    2332.49, -121.4,   0.97115, 3,     2170.2,  117.1,   0.90358, 0, 0, 0, 0
"645", 4.16, 1,          0,    0.0,         0, 2,    2313.32, -121.4,   0.96317, 3,          0,    0.0,         0
"646", 4.16, 2,    2306.59, -121.5,   0.96037, 0, 0, 0, 0, 0, 0, 0, 0
"692", 4.16, 1,    2344.85,   -1.4,    0.9763, 2,    2332.49, -121.4,   0.97115, 3,    2221.11,  117.5,   0.92478
"675", 4.16, 1,    2331.63,   -1.7,    0.9708, 2,    2321.59, -121.7,   0.96661, 3,    2212.04,  117.1,     0.921
"611", 4.16, 3,    2165.59,  117.0,   0.90166, 0, 0, 0, 0, 0, 0, 0, 0
"652", 4.16, 3,    2157.94,  117.2,   0.89848, 0, 0, 0, 0, 0, 0, 0, 0
"670", 4.16, 1,     2331.4,   -0.7,    0.9707, 2,     2320.7, -121.7,   0.96624, 3,    2266.83,  118.4,   0.94381
"671", 4.16, 1,    2344.85,   -1.4,    0.9763, 2,    2332.49, -121.4,   0.97115, 3,    2221.11,  117.5,   0.92478
"632", 4.16, 1,    2341.14,   -0.4,   0.97475, 2,    2326.21, -121.4,   0.96854, 3,    2315.39,  118.9,   0.96403
